*SPEF "1481-1998"
*DESIGN "control_pad"
*DATE "Fri May  7 19:51:14 2021"
*VENDOR "Synopsys, Inc."
*PROGRAM "icc_shell"
*VERSION "H-2013.03-ICC-SP5-2"
*DESIGN_FLOW "PIN_CAP NONE"
*DIVIDER /
*DELIMITER :
*BUS_DELIMITER [ ]
*T_UNIT 1 NS
*C_UNIT 1 FF
*R_UNIT 1 OHM
*L_UNIT 1 HENRY

*PORTS
rd O *L 63.66 *S 0.0 0.0
zero I *L 0.0 *S 0.0 0.0
clk I *L 0.0 *S 0.0 0.0
rst_ I *L 0.0 *S 0.0 0.0
opcode[2] I *L 0.0 *S 0.0 0.0
opcode[1] I *L 0.0 *S 0.0 0.0
opcode[0] I *L 0.0 *S 0.0 0.0
VDD I *L 0.0 *S 0.0 0.0
sel O *L 63.66 *S 0.0 0.0
data_e O *L 63.66 *S 0.0 0.0
halt O *L 63.66 *S 0.0 0.0
inc_pc O *L 63.66 *S 0.0 0.0
ld_pc O *L 63.66 *S 0.0 0.0
ld_ac O *L 63.66 *S 0.0 0.0
ld_ir O *L 63.66 *S 0.0 0.0
wr O *L 63.66 *S 0.0 0.0
VSS I *L 0.0 *S 0.0 0.0

*D_NET n19 8.557324

*CONN
*I U38:A1 I *L 2.093 *C 285.65 291.165
*I U36:B I *L 1.722 *C 288.41 291.575
*I i_control_state_reg_2_:QN O *L 0.0 *D DFFRX1 *C 254.37 287.885
*N n19:4 *C 285.65 291.165
*N n19:5 *C 285.65 290.755
*N n19:6 *C 285.65 290.755
*N n19:7 *C 288.41 291.575
*N n19:8 *C 288.41 290.755
*N n19:9 *C 288.41 290.755
*N n19:10 *C 254.37 287.885
*N n19:11 *C 254.37 287.885
*N n19:12 *C 281.51 287.885
*N n19:13 *C 281.51 287.885
*N n19:14 *C 281.51 290.755
*N n19:15 *C 281.51 290.755

*CAP
1 U38:A1 0.0
2 U36:B 0.0
3 i_control_state_reg_2_:QN 0.0
4 n19:4 0.0958596
5 n19:5 0.03505219
6 n19:6 0.0958596
7 n19:7 0.1285256
8 n19:8 1e-07
9 n19:9 0.1285256
10 n19:10 0.06161808
11 n19:11 0.9189357
12 n19:12 0.2577118
13 n19:13 0.8573174
14 n19:14 0.2577118
15 n19:15 0.0350522
16 n19:8 i_control_state_2_:14 0.2579851
17 n19:5 i_control_state_2_:14 0.7252812
18 n19:15 i_control_state_2_:26 0.3368717
19 n19:8 n18:21 0.2075863
20 n19:5 n18:6 0.2321281
21 n19:13 i_control_N14:8 1.757024
22 n19:11 i_control_N14:5 1.757024
23 n19:13 opcode_pad\[0\]:8 0.2056272
24 n19:13 opcode_pad\[0\]:28 0.2056272

*RES
1 n19:4 U38:A1 0.1
2 n19:5 n19:6 0.1
3 n19:7 U36:B 0.1
4 n19:8 n19:9 0.1
5 n19:10 i_control_state_reg_2_:QN 0.1
6 n19:11 n19:10 0.1
7 n19:12 n19:13 0.1
8 n19:14 n19:15 0.1
9 n19:6 n19:4 0.06370001
10 n19:9 n19:7 0.10101
11 n19:11 n19:13 2.49613
12 n19:15 n19:5 0.389935
13 n19:5 n19:8 0.264355
14 n19:12 n19:14 0.28756

*END

*D_NET n4 11.40493

*CONN
*I U38:A0 I *L 2.166 *C 286.11 291.165
*I U37:A I *L 3.085 *C 287.95 294.855
*I U31:A1 I *L 6.308 *C 293.47 288.295
*I U30:C0 I *L 3.201 *C 290.71 291.575
*I i_control_state_reg_1_:QN O *L 0.0 *D DFFRXL *C 304.05 250.985
*N n4:6 *C 293.47 288.295
*N n4:7 *C 293.47 288.295
*N n4:8 *C 292.55 288.295
*N n4:9 *C 292.55 288.295
*N n4:10 *C 287.95 294.855
*N n4:11 *C 287.95 294.035
*N n4:12 *C 287.95 294.035
*N n4:13 *C 287.95 294.035
*N n4:14 *C 287.95 291.575
*N n4:15 *C 287.95 291.575
*N n4:16 *C 290.71 291.575
*N n4:17 *C 290.71 291.575
*N n4:18 *C 304.05 250.985
*N n4:19 *C 304.05 250.985
*N n4:20 *C 292.55 250.985
*N n4:21 *C 292.55 250.985
*N n4:22 *C 292.55 287.065
*N n4:23 *C 292.55 287.065
*N n4:24 *C 290.71 287.065
*N n4:25 *C 290.71 287.065
*N n4:26 *C 290.71 291.575
*N n4:27 *C 286.11 291.165
*N n4:28 *C 286.11 291.575
*N n4:29 *C 286.11 291.575

*CAP
1 U38:A0 0.0
2 U37:A 0.0
3 U31:A1 0.0
4 U30:C0 0.0
5 i_control_state_reg_1_:QN 0.0
6 n4:6 0.04688903
7 n4:7 0.2213591
8 n4:8 0.08351328
9 n4:9 0.17447
10 n4:10 0.1164215
11 n4:11 0.09767102
12 n4:12 0.1164215
13 n4:13 0.3041494
14 n4:14 0.2064784
15 n4:15 0.1927827
16 n4:16 0.09213919
17 n4:17 0.1757029
18 n4:18 0.0717459
19 n4:19 0.1736484
20 n4:20 1.74182
21 n4:21 0.1019025
22 n4:22 1.825334
23 n4:23 0.2622115
24 n4:24 0.344804
25 n4:25 0.2622115
26 n4:26 0.344804
27 n4:27 0.09916353
28 n4:28 0.1092191
29 n4:29 0.09916353
30 n4:8 i_control_state_2_:9 0.04366051
31 n4:17 i_control_state_2_:12 0.2906922
32 n4:15 i_control_state_2_:14 0.4159735
33 n4:28 i_control_state_2_:14 0.1252814
34 n4:19 n18:17 0.8253251
35 n4:21 n18:19 0.8253251
36 n4:19 rst_pad:6 0.8073232
37 n4:21 rst_pad:8 0.8073232

*RES
1 n4:6 U31:A1 0.1
2 n4:7 n4:6 0.1
3 n4:8 n4:9 0.1
4 n4:10 U37:A 0.1
5 n4:11 n4:12 0.1
6 n4:13 n4:11 0.1
7 n4:14 n4:15 0.1
8 n4:16 U30:C0 0.1
9 n4:17 n4:16 0.1
10 n4:18 i_control_state_reg_1_:QN 0.1
11 n4:19 n4:18 0.1
12 n4:20 n4:21 0.1
13 n4:22 n4:23 0.1
14 n4:24 n4:25 0.1
15 n4:26 n4:17 0.1
16 n4:27 U38:A0 0.1
17 n4:28 n4:29 0.1
18 n4:27 n4:29 0.06370001
19 n4:12 n4:10 0.10101
20 n4:28 n4:15 0.180635
21 n4:15 n4:17 0.264355
22 n4:25 n4:23 0.19383
23 n4:21 n4:19 1.07289
24 n4:9 n4:7 0.11011
25 n4:14 n4:13 0.25025
26 n4:24 n4:26 0.4368001
27 n4:20 n4:22 3.296476
28 n4:22 n4:8 0.125125

*END

*D_NET i_control_N21 6.955952

*CONN
*I U38:Y O *L 0.0 *D OAI22XL *C 285.19 291.985
*I i_control_state_reg_0_:D I *L 1.311 *C 282.43 328.475
*N i_control_N21:3 *C 285.19 291.985
*N i_control_N21:4 *C 285.19 291.985
*N i_control_N21:5 *C 285.19 291.985
*N i_control_N21:6 *C 285.19 328.475
*N i_control_N21:7 *C 285.19 328.475
*N i_control_N21:8 *C 282.43 328.475
*N i_control_N21:9 *C 282.43 328.475

*CAP
1 U38:Y 0.0
2 i_control_state_reg_0_:D 0.06481364
3 i_control_N21:3 0.08334979
4 i_control_N21:4 0.1589841
5 i_control_N21:5 1.286292
6 i_control_N21:6 1.210657
7 i_control_N21:7 0.1952929
8 i_control_N21:8 0.1952929
9 i_control_N21:9 0.06481364
10 i_control_N21:5 n9:9 0.1890827
11 i_control_N21:5 n9:10 0.1890827
12 i_control_N21:6 ld_pc_pad:14 1.659145
13 i_control_N21:5 ld_pc_pad:5 1.659145

*RES
1 i_control_N21:3 U38:Y 0.1
2 i_control_N21:4 i_control_N21:3 0.1
3 i_control_N21:5 i_control_N21:4 0.1
4 i_control_N21:6 i_control_N21:7 0.1
5 i_control_N21:8 i_control_N21:9 0.1
6 i_control_N21:9 i_control_state_reg_0_:D 0.1
7 i_control_N21:8 i_control_N21:7 0.27755
8 i_control_N21:5 i_control_N21:6 3.346981

*END

*D_NET i_control_state_2_ 7.989066

*CONN
*I U38:B1 I *L 2.013 *C 287.03 291.165
*I U32:A I *L 3.176 *C 276.91 291.575
*I U31:A0 I *L 7.377 *C 292.55 287.885
*I U30:A1 I *L 3.436 *C 292.09 291.575
*I i_control_state_reg_2_:Q O *L 0.0 *D DFFRX1 *C 254.83 288.295
*N i_control_state_2_:6 *C 292.55 287.885
*N i_control_state_2_:7 *C 292.55 288.705
*N i_control_state_2_:8 *C 292.55 288.705
*N i_control_state_2_:9 *C 292.09 288.705
*N i_control_state_2_:10 *C 292.09 288.705
*N i_control_state_2_:11 *C 292.09 291.165
*N i_control_state_2_:12 *C 292.09 291.165
*N i_control_state_2_:13 *C 287.03 291.165
*N i_control_state_2_:14 *C 287.03 291.165
*N i_control_state_2_:15 *C 276.91 291.575
*N i_control_state_2_:16 *C 276.91 290.345
*N i_control_state_2_:17 *C 276.91 290.345
*N i_control_state_2_:18 *C 292.09 291.575
*N i_control_state_2_:19 *C 292.09 291.165
*N i_control_state_2_:20 *C 254.83 288.295
*N i_control_state_2_:21 *C 254.83 289.525
*N i_control_state_2_:22 *C 254.83 289.525
*N i_control_state_2_:23 *C 254.83 289.525
*N i_control_state_2_:24 *C 254.83 290.755
*N i_control_state_2_:25 *C 254.83 290.755
*N i_control_state_2_:26 *C 278.29 291.165
*N i_control_state_2_:27 *C 278.29 291.165
*N i_control_state_2_:28 *C 278.29 290.345
*N i_control_state_2_:29 *C 278.29 290.345
*N i_control_state_2_:30 *C 276.91 290.755

*CAP
1 U38:B1 0.0
2 U32:A 0.0
3 U31:A0 0.0
4 U30:A1 0.0
5 i_control_state_reg_2_:Q 0.0
6 i_control_state_2_:6 0.1147381
7 i_control_state_2_:7 0.0928037
8 i_control_state_2_:8 0.1147381
9 i_control_state_2_:9 0.1845645
10 i_control_state_2_:10 0.0928037
11 i_control_state_2_:11 0.1845645
12 i_control_state_2_:12 0.2168383
13 i_control_state_2_:13 0.09233148
14 i_control_state_2_:14 0.6541225
15 i_control_state_2_:15 0.1588034
16 i_control_state_2_:16 0.12559
17 i_control_state_2_:17 0.1588034
18 i_control_state_2_:18 0.0801298
19 i_control_state_2_:19 0.0801298
20 i_control_state_2_:20 0.1325786
21 i_control_state_2_:21 0.05154009
22 i_control_state_2_:22 0.1325786
23 i_control_state_2_:23 0.1557595
24 i_control_state_2_:24 0.1042194
25 i_control_state_2_:25 1.07139
26 i_control_state_2_:26 0.3449527
27 i_control_state_2_:27 0.12618
28 i_control_state_2_:28 0.09769821
29 i_control_state_2_:29 0.12618
30 i_control_state_2_:30 1.099282
31 i_control_state_2_:14 n19:8 0.2579851
32 i_control_state_2_:14 n19:5 0.7252812
33 i_control_state_2_:26 n19:15 0.3368717
34 i_control_state_2_:9 n4:8 0.04366051
35 i_control_state_2_:12 n4:17 0.2906922
36 i_control_state_2_:14 n4:15 0.4159735
37 i_control_state_2_:14 n4:28 0.1252814

*RES
1 i_control_state_2_:6 U31:A0 0.1
2 i_control_state_2_:7 i_control_state_2_:8 0.1
3 i_control_state_2_:9 i_control_state_2_:10 0.1
4 i_control_state_2_:11 i_control_state_2_:12 0.1
5 i_control_state_2_:13 U38:B1 0.1
6 i_control_state_2_:14 i_control_state_2_:13 0.1
7 i_control_state_2_:15 U32:A 0.1
8 i_control_state_2_:16 i_control_state_2_:17 0.1
9 i_control_state_2_:18 U30:A1 0.1
10 i_control_state_2_:12 i_control_state_2_:19 0.1
11 i_control_state_2_:20 i_control_state_reg_2_:Q 0.1
12 i_control_state_2_:21 i_control_state_2_:22 0.1
13 i_control_state_2_:23 i_control_state_2_:21 0.1
14 i_control_state_2_:24 i_control_state_2_:25 0.1
15 i_control_state_2_:26 i_control_state_2_:27 0.1
16 i_control_state_2_:28 i_control_state_2_:29 0.1
17 i_control_state_2_:20 i_control_state_2_:22 0.13832
18 i_control_state_2_:17 i_control_state_2_:15 0.13832
19 i_control_state_2_:29 i_control_state_2_:27 0.10101
20 i_control_state_2_:19 i_control_state_2_:18 0.06370001
21 i_control_state_2_:6 i_control_state_2_:8 0.10101
22 i_control_state_2_:25 i_control_state_2_:30 2.031575
23 i_control_state_2_:16 i_control_state_2_:30 0.02821
24 i_control_state_2_:16 i_control_state_2_:28 0.136773
25 i_control_state_2_:26 i_control_state_2_:14 0.8085351
26 i_control_state_2_:14 i_control_state_2_:12 0.473655
27 i_control_state_2_:10 i_control_state_2_:7 0.06825001
28 i_control_state_2_:23 i_control_state_2_:24 0.13832
29 i_control_state_2_:9 i_control_state_2_:11 0.25025

*END

*D_NET n18 10.02216

*CONN
*I U38:B0 I *L 2.16 *C 286.57 291.165
*I U35:B I *L 1.766 *C 294.85 291.985
*I U33:B I *L 2.911 *C 287.49 284.605
*I i_control_state_reg_1_:Q O *L 0.0 *D DFFRXL *C 303.59 251.395
*N n18:5 *C 286.57 291.165
*N n18:6 *C 286.57 290.345
*N n18:7 *C 286.57 290.345
*N n18:8 *C 294.85 291.985
*N n18:9 *C 294.85 290.345
*N n18:10 *C 294.85 290.345
*N n18:11 *C 287.49 284.605
*N n18:12 *C 287.49 285.015
*N n18:13 *C 287.49 285.015
*N n18:14 *C 288.41 285.015
*N n18:15 *C 288.41 285.015
*N n18:16 *C 303.59 251.395
*N n18:17 *C 303.59 251.395
*N n18:18 *C 288.41 251.395
*N n18:19 *C 288.41 251.395
*N n18:20 *C 288.41 290.345
*N n18:21 *C 288.41 290.345

*CAP
1 U38:B0 0.0
2 U35:B 0.0
3 U33:B 0.0
4 i_control_state_reg_1_:Q 0.0
5 n18:5 0.1386152
6 n18:6 0.02004041
7 n18:7 0.1386152
8 n18:8 0.2078436
9 n18:9 0.4374162
10 n18:10 0.2078436
11 n18:11 0.08475889
12 n18:12 0.1280554
13 n18:13 0.08475889
14 n18:14 1.868565
15 n18:15 0.1280554
16 n18:16 0.0659636
17 n18:17 0.6356273
18 n18:18 1.473789
19 n18:19 0.5696637
20 n18:20 0.394776
21 n18:21 0.4574566
22 n18:21 n19:8 0.2075863
23 n18:6 n19:5 0.2321281
24 n18:17 n4:19 0.8253251
25 n18:19 n4:21 0.8253251
26 n18:20 n20:8 0.03635626
27 n18:14 n20:19 0.03635626
28 n18:14 n20:17 0.4487012
29 n18:9 n17:9 0.1366582
30 n18:21 n17:10 0.2318813

*RES
1 n18:5 U38:B0 0.1
2 n18:6 n18:7 0.1
3 n18:8 U35:B 0.1
4 n18:9 n18:10 0.1
5 n18:11 U33:B 0.1
6 n18:12 n18:13 0.1
7 n18:14 n18:15 0.1
8 n18:16 i_control_state_reg_1_:Q 0.1
9 n18:17 n18:16 0.1
10 n18:18 n18:19 0.1
11 n18:20 n18:21 0.1
12 n18:7 n18:5 0.10101
13 n18:11 n18:13 0.06370001
14 n18:10 n18:8 0.17563
15 n18:6 n18:21 0.180635
16 n18:21 n18:9 0.5992351
17 n18:12 n18:15 0.11011
18 n18:19 n18:17 1.40777
19 n18:18 n18:14 3.072615
20 n18:14 n18:20 0.498225

*END

*D_NET n9 7.831933

*CONN
*I U37:Y O *L 0.0 *D NAND2X1 *C 287.49 296.085
*I U32:B I *L 2.958 *C 276.45 291.575
*I U29:A I *L 5.822 *C 284.73 298.955
*I U26:AN I *L 1.605 *C 276.91 294.855
*I U24:AN I *L 2.654 *C 288.87 284.195
*I U20:B I *L 5.96 *C 280.13 284.195
*N n9:7 *C 284.73 298.955
*N n9:8 *C 284.73 298.955
*N n9:9 *C 284.73 298.955
*N n9:10 *C 284.73 296.085
*N n9:11 *C 284.73 296.085
*N n9:12 *C 280.13 284.195
*N n9:13 *C 280.13 284.195
*N n9:14 *C 288.87 284.195
*N n9:15 *C 288.87 284.195
*N n9:16 *C 276.45 291.575
*N n9:17 *C 276.45 291.575
*N n9:18 *C 276.91 294.855
*N n9:19 *C 276.91 295.265
*N n9:20 *C 276.91 295.265
*N n9:21 *C 276.91 295.265
*N n9:22 *C 287.49 296.085
*N n9:23 *C 287.49 296.085
*N n9:24 *C 276.91 296.085
*N n9:25 *C 276.91 296.085
*N n9:26 *C 278.29 284.605
*N n9:27 *C 278.29 284.605
*N n9:28 *C 278.29 291.575
*N n9:29 *C 278.29 291.575
*N n9:30 *C 276.45 291.575
*N n9:31 *C 280.13 284.605
*N n9:32 *C 276.45 295.265

*CAP
1 U37:Y 0.0
2 U32:B 0.0
3 U29:A 0.0
4 U26:AN 0.0
5 U24:AN 0.0
6 U20:B 0.0
7 n9:7 0.06595456
8 n9:8 0.1278914
9 n9:9 0.1807749
10 n9:10 0.118838
11 n9:11 0.559308
12 n9:12 0.06785563
13 n9:13 0.6998103
14 n9:14 0.069619
15 n9:15 0.6735685
16 n9:16 0.0866764
17 n9:17 0.3183208
18 n9:18 0.08876459
19 n9:19 0.07228413
20 n9:20 0.08876459
21 n9:21 0.2087944
22 n9:22 0.0733192
23 n9:23 0.1270106
24 n9:24 0.1025614
25 n9:25 0.5056166
26 n9:26 0.6443012
27 n9:27 0.2130957
28 n9:28 0.6443012
29 n9:29 0.2316444
30 n9:30 0.09012815
31 n9:31 0.241101
32 n9:32 0.124077
33 n9:9 i_control_N21:5 0.1890827
34 n9:10 i_control_N21:5 0.1890827
35 n9:23 n11:5 0.1351166
36 n9:11 n11:7 0.1351166
37 n9:13 n1:8 0.217285
38 n9:13 n1:9 0.217285
39 n9:32 n14:15 0.1622916
40 n9:30 n14:7 0.1622916

*RES
1 n9:7 U29:A 0.1
2 n9:8 n9:7 0.1
3 n9:9 n9:8 0.1
4 n9:10 n9:11 0.1
5 n9:12 U20:B 0.1
6 n9:13 n9:12 0.1
7 n9:14 U24:AN 0.1
8 n9:15 n9:14 0.1
9 n9:16 U32:B 0.1
10 n9:17 n9:16 0.1
11 n9:18 U26:AN 0.1
12 n9:19 n9:20 0.1
13 n9:21 n9:19 0.1
14 n9:22 U37:Y 0.1
15 n9:23 n9:22 0.1
16 n9:24 n9:25 0.1
17 n9:26 n9:27 0.1
18 n9:28 n9:29 0.1
19 n9:30 n9:17 0.1
20 n9:18 n9:20 0.06370001
21 n9:17 n9:29 0.19383
22 n9:25 n9:11 0.7248151
23 n9:11 n9:23 0.264355
24 n9:27 n9:31 0.189735
25 n9:13 n9:31 0.02821
26 n9:13 n9:15 0.8065332
27 n9:30 n9:32 0.3580851
28 n9:32 n9:21 0.03276
29 n9:21 n9:24 0.08781502
30 n9:26 n9:28 0.66066
31 n9:10 n9:9 0.28756

*END

*D_NET n3 5.688053

*CONN
*I U37:B I *L 2.911 *C 288.41 294.855
*I U36:A I *L 1.902 *C 288.87 291.575
*I U35:A I *L 1.907 *C 294.39 291.575
*I U30:A0 I *L 3.39 *C 291.63 291.985
*I i_control_state_reg_0_:QN O *L 0.0 *D DFFRX1 *C 289.33 328.065
*N n3:6 *C 294.39 291.575
*N n3:7 *C 294.39 292.395
*N n3:8 *C 294.39 292.395
*N n3:9 *C 288.87 291.575
*N n3:10 *C 288.87 291.985
*N n3:11 *C 288.87 291.985
*N n3:12 *C 288.41 294.855
*N n3:13 *C 288.87 294.445
*N n3:14 *C 288.87 294.445
*N n3:15 *C 288.87 294.445
*N n3:16 *C 291.63 291.985
*N n3:17 *C 291.63 292.395
*N n3:18 *C 291.63 292.395
*N n3:19 *C 289.33 328.065
*N n3:20 *C 289.33 328.065
*N n3:21 *C 289.33 328.065
*N n3:22 *C 288.87 292.395
*N n3:23 *C 288.87 292.395
*N n3:24 *C 288.41 294.445
*N n3:25 *C 289.33 294.445

*CAP
1 U37:B 0.0
2 U36:A 0.0
3 U35:A 0.0
4 U30:A0 0.0
5 i_control_state_reg_0_:QN 0.0
6 n3:6 0.1269841
7 n3:7 0.1718806
8 n3:8 0.1269841
9 n3:9 0.09193662
10 n3:10 0.05384891
11 n3:11 0.09193662
12 n3:12 0.06896628
13 n3:13 0.09097784
14 n3:14 0.04767591
15 n3:15 0.265266
16 n3:16 0.09582707
17 n3:17 0.3507336
18 n3:18 0.09582707
19 n3:19 0.05716121
20 n3:20 0.1046953
21 n3:21 1.685627
22 n3:22 0.1331158
23 n3:23 0.2327019
24 n3:24 0.1166422
25 n3:25 1.679265

*RES
1 n3:6 U35:A 0.1
2 n3:7 n3:8 0.1
3 n3:9 U36:A 0.1
4 n3:10 n3:11 0.1
5 n3:12 U37:B 0.1
6 n3:13 n3:14 0.1
7 n3:15 n3:13 0.1
8 n3:16 U30:A0 0.1
9 n3:17 n3:18 0.1
10 n3:19 i_control_state_reg_0_:QN 0.1
11 n3:20 n3:19 0.1
12 n3:21 n3:20 0.1
13 n3:22 n3:23 0.1
14 n3:24 n3:12 0.05960501
15 n3:24 n3:14 0.04186001
16 n3:9 n3:11 0.06370001
17 n3:16 n3:18 0.06370001
18 n3:6 n3:8 0.10101
19 n3:10 n3:23 0.04641001
20 n3:23 n3:17 0.249158
21 n3:17 n3:7 0.264355
22 n3:22 n3:15 0.197652
23 n3:15 n3:25 0.05096001
24 n3:25 n3:21 3.063515

*END

*D_NET n20 2.966707

*CONN
*I U36:Y O *L 0.0 *D NOR2XL *C 289.33 291.165
*I U34:AN I *L 1.31 *C 288.87 287.475
*I U33:A I *L 3.085 *C 287.03 284.605
*I U24:B I *L 6.084 *C 289.735 284.605
*N n20:5 *C 289.33 291.165
*N n20:6 *C 289.33 290.755
*N n20:7 *C 289.33 290.755
*N n20:8 *C 289.33 290.755
*N n20:9 *C 288.87 287.475
*N n20:10 *C 288.87 287.065
*N n20:11 *C 288.87 287.065
*N n20:12 *C 288.87 287.065
*N n20:13 *C 287.03 284.605
*N n20:14 *C 287.03 284.605
*N n20:15 *C 289.735 284.605
*N n20:16 *C 289.735 284.605
*N n20:17 *C 288.87 284.605
*N n20:18 *C 288.87 284.605
*N n20:19 *C 289.33 287.065

*CAP
1 U36:Y 0.0
2 U34:AN 0.0
3 U33:A 0.0
4 U24:B 0.0
5 n20:5 0.0888719
6 n20:6 0.1343682
7 n20:7 0.0888719
8 n20:8 0.3497503
9 n20:9 0.08555636
10 n20:10 0.09860538
11 n20:11 0.08555636
12 n20:12 0.1681511
13 n20:13 0.08163436
14 n20:14 0.3386208
15 n20:15 0.07832696
16 n20:16 0.1916962
17 n20:17 0.02658066
18 n20:18 0.3703556
19 n20:19 0.2583471
20 n20:8 n18:20 0.03635626
21 n20:19 n18:14 0.03635626
22 n20:17 n18:14 0.4487012

*RES
1 n20:5 U36:Y 0.1
2 n20:6 n20:7 0.1
3 n20:8 n20:6 0.1
4 n20:9 U34:AN 0.1
5 n20:10 n20:11 0.1
6 n20:12 n20:10 0.1
7 n20:13 U33:A 0.1
8 n20:14 n20:13 0.1
9 n20:15 U24:B 0.1
10 n20:16 n20:15 0.1
11 n20:17 n20:18 0.1
12 n20:11 n20:9 0.06370001
13 n20:7 n20:5 0.06370001
14 n20:14 n20:18 0.180635
15 n20:18 n20:16 0.09191
16 n20:17 n20:12 0.234962
17 n20:12 n20:19 0.05096001
18 n20:19 n20:8 0.339885

*END

*D_NET n7 3.414093

*CONN
*I U35:Y O *L 0.0 *D NAND2XL *C 293.93 292.395
*I U34:B I *L 1.892 *C 288.41 287.475
*I U31:B0 I *L 6.03 *C 295.31 287.475
*I U25:A I *L 3.966 *C 295.31 291.575
*N n7:5 *C 295.31 291.575
*N n7:6 *C 295.31 291.165
*N n7:7 *C 295.31 291.165
*N n7:8 *C 295.31 287.475
*N n7:9 *C 295.31 287.885
*N n7:10 *C 295.31 287.885
*N n7:11 *C 293.93 292.395
*N n7:12 *C 293.93 291.165
*N n7:13 *C 293.93 291.165
*N n7:14 *C 288.41 287.475
*N n7:15 *C 288.41 287.885
*N n7:16 *C 288.41 287.885
*N n7:17 *C 294.85 287.885
*N n7:18 *C 294.85 287.885
*N n7:19 *C 294.85 291.165
*N n7:20 *C 294.85 291.165

*CAP
1 U35:Y 0.0
2 U34:B 0.0
3 U31:B0 0.0
4 U25:A 0.0
5 n7:5 0.09779234
6 n7:6 0.07405449
7 n7:7 0.09779234
8 n7:8 0.08328871
9 n7:9 0.08549174
10 n7:10 0.08328871
11 n7:11 0.1526948
12 n7:12 0.0360611
13 n7:13 0.1526948
14 n7:14 0.08898401
15 n7:15 0.1491124
16 n7:16 0.08898401
17 n7:17 0.1512625
18 n7:18 0.2346041
19 n7:19 0.1512625
20 n7:20 0.1101156
21 n7:19 n17:8 0.166622
22 n7:17 n17:6 0.166622
23 n7:20 n17:9 0.08319564
24 n7:12 n17:9 0.08319564
25 n7:18 n17:4 0.05881266
26 n7:18 n17:7 0.05881266
27 n7:18 inc_pc_pad:4 0.4796742
28 n7:15 inc_pc_pad:4 0.4796742

*RES
1 n7:5 U25:A 0.1
2 n7:6 n7:7 0.1
3 n7:8 U31:B0 0.1
4 n7:9 n7:10 0.1
5 n7:11 U35:Y 0.1
6 n7:12 n7:13 0.1
7 n7:14 U34:B 0.1
8 n7:15 n7:16 0.1
9 n7:17 n7:18 0.1
10 n7:19 n7:20 0.1
11 n7:14 n7:16 0.0637
12 n7:13 n7:11 0.13832
13 n7:8 n7:10 0.0637
14 n7:7 n7:5 0.06370001
15 n7:15 n7:18 0.5992351
16 n7:18 n7:9 0.05505501
17 n7:12 n7:20 0.09691501
18 n7:20 n7:6 0.05505501
19 n7:17 n7:19 0.32487

*END

*D_NET i_control_N14 7.283889

*CONN
*I U34:Y O *L 0.0 *D NAND2BXL *C 287.49 288.705
*I i_control_state_reg_2_:D I *L 1.311 *C 247.01 287.885
*N i_control_N14:3 *C 287.49 288.705
*N i_control_N14:4 *C 287.49 288.705
*N i_control_N14:5 *C 247.01 288.295
*N i_control_N14:6 *C 247.01 288.295
*N i_control_N14:7 *C 247.01 287.885
*N i_control_N14:8 *C 278.75 288.295
*N i_control_N14:9 *C 278.75 288.705

*CAP
1 U34:Y 0.0
2 i_control_state_reg_2_:D 0.0
3 i_control_N14:3 0.08567674
4 i_control_N14:4 0.7008919
5 i_control_N14:5 1.09033
6 i_control_N14:6 0.05445489
7 i_control_N14:7 0.05445489
8 i_control_N14:8 1.129574
9 i_control_N14:9 0.6544595
10 i_control_N14:8 n19:13 1.757024
11 i_control_N14:5 n19:11 1.757024

*RES
1 i_control_N14:3 U34:Y 0.1
2 i_control_N14:4 i_control_N14:3 0.1
3 i_control_N14:5 i_control_N14:6 0.1
4 i_control_N14:7 i_control_state_reg_2_:D 0.1
5 i_control_N14:7 i_control_N14:6 0.06370001
6 i_control_N14:5 i_control_N14:8 2.910636
7 i_control_N14:8 i_control_N14:9 0.03731
8 i_control_N14:9 i_control_N14:4 0.7994351

*END

*D_NET n12 3.36358

*CONN
*I U33:Y O *L 0.0 *D NAND2X1 *C 286.57 283.375
*I U27:B0 I *L 6.03 *C 285.19 287.475
*I U17:C I *L 7.417 *C 280.59 288.295
*N n12:4 *C 280.59 288.295
*N n12:5 *C 280.59 287.065
*N n12:6 *C 280.59 287.065
*N n12:7 *C 285.19 287.475
*N n12:8 *C 285.19 287.885
*N n12:9 *C 285.19 287.885
*N n12:10 *C 284.27 287.885
*N n12:11 *C 284.27 287.885
*N n12:12 *C 284.27 287.065
*N n12:13 *C 284.27 287.065
*N n12:14 *C 286.57 283.375
*N n12:15 *C 286.57 283.375
*N n12:16 *C 284.27 283.375
*N n12:17 *C 284.27 283.375
*N n12:18 *C 284.27 287.065

*CAP
1 U33:Y 0.0
2 U27:B0 0.0
3 U17:C 0.0
4 n12:4 0.1680426
5 n12:5 0.406219
6 n12:6 0.1680426
7 n12:7 0.08459891
8 n12:8 0.1391742
9 n12:9 0.08459891
10 n12:10 0.1391742
11 n12:11 0.1233031
12 n12:12 0.406219
13 n12:13 0.1233031
14 n12:14 0.06849916
15 n12:15 0.2655131
16 n12:16 0.3287923
17 n12:17 0.1970139
18 n12:18 0.3287923
19 n12:18 n1:5 0.1661465
20 n12:16 n1:7 0.1661465

*RES
1 n12:4 U17:C 0.1
2 n12:5 n12:6 0.1
3 n12:7 U27:B0 0.1
4 n12:8 n12:9 0.1
5 n12:10 n12:11 0.1
6 n12:12 n12:13 0.1
7 n12:14 U33:Y 0.1
8 n12:15 n12:14 0.1
9 n12:16 n12:17 0.1
10 n12:18 n12:12 0.1
11 n12:6 n12:4 0.13832
12 n12:13 n12:11 0.10101
13 n12:7 n12:9 0.0637
14 n12:5 n12:12 0.3612701
15 n12:17 n12:15 0.23569
16 n12:10 n12:8 0.11011
17 n12:16 n12:18 0.3621801

*END

*D_NET n11 3.161825

*CONN
*I U32:Y O *L 0.0 *D NOR2X1 *C 277.37 292.395
*I U11:A I *L 3.275 *C 282.89 292.395
*I U8:A I *L 2.232 *C 290.71 294.855
*N n11:4 *C 290.71 294.855
*N n11:5 *C 290.71 294.855
*N n11:6 *C 283.81 294.855
*N n11:7 *C 283.81 294.855
*N n11:8 *C 283.81 292.395
*N n11:9 *C 283.81 292.395
*N n11:10 *C 277.37 292.395
*N n11:11 *C 277.37 292.395
*N n11:12 *C 282.89 292.395
*N n11:13 *C 282.89 292.395

*CAP
1 U32:Y 0.0
2 U11:A 0.0
3 U8:A 0.0
4 n11:4 0.09081078
5 n11:5 0.288643
6 n11:6 0.2163031
7 n11:7 0.1978323
8 n11:8 0.2163031
9 n11:9 0.1117664
10 n11:10 0.08972857
11 n11:11 0.4188859
12 n11:12 0.09109285
13 n11:13 0.5320166
14 n11:5 n9:23 0.1351166
15 n11:7 n9:11 0.1351166
16 n11:5 n8:19 0.1642064
17 n11:7 n8:21 0.1642064
18 n11:13 opcode_pad\[1\]:16 0.1548985
19 n11:13 opcode_pad\[1\]:19 0.1548985

*RES
1 n11:4 U8:A 0.1
2 n11:5 n11:4 0.1
3 n11:6 n11:7 0.1
4 n11:8 n11:9 0.1
5 n11:10 U32:Y 0.1
6 n11:11 n11:10 0.1
7 n11:12 U11:A 0.1
8 n11:13 n11:12 0.1
9 n11:11 n11:13 0.515515
10 n11:13 n11:9 0.09691502
11 n11:7 n11:5 0.65429
12 n11:8 n11:6 0.25025

*END

*D_NET n17 2.129162

*CONN
*I U31:C0 I *L 6.314 *C 294.85 287.885
*I U30:Y O *L 0.0 *D OAI211X1 *C 291.17 290.755
*N n17:3 *C 294.85 287.885
*N n17:4 *C 294.85 288.295
*N n17:5 *C 294.85 288.295
*N n17:6 *C 294.39 288.295
*N n17:7 *C 294.39 288.295
*N n17:8 *C 294.39 290.755
*N n17:9 *C 294.39 290.755
*N n17:10 *C 291.17 290.755
*N n17:11 *C 291.17 290.755

*CAP
1 U31:C0 0.0
2 U30:Y 0.08379921
3 n17:3 0.08977449
4 n17:4 0.05781881
5 n17:5 0.08977449
6 n17:6 0.1045221
7 n17:7 0.05781881
8 n17:8 0.1045221
9 n17:9 0.2357665
10 n17:10 0.2357665
11 n17:11 0.08379921
12 n17:9 n18:9 0.1366582
13 n17:10 n18:21 0.2318813
14 n17:8 n7:19 0.166622
15 n17:6 n7:17 0.166622
16 n17:9 n7:20 0.08319564
17 n17:9 n7:12 0.08319564
18 n17:4 n7:18 0.05881266
19 n17:7 n7:18 0.05881266

*RES
1 n17:3 U31:C0 0.1
2 n17:4 n17:5 0.1
3 n17:6 n17:7 0.1
4 n17:8 n17:9 0.1
5 n17:10 n17:11 0.1
6 n17:11 U30:Y 0.1
7 n17:3 n17:5 0.06370002
8 n17:10 n17:9 0.31941
9 n17:7 n17:4 0.06825001
10 n17:6 n17:8 0.25025

*END

*D_NET rd_pad 18.33932

*CONN
*I U31:Y O *L 0.0 *D OAI211X2 *C 296.23 287.475
*I i_rd:I I *L 77.0 *C 407.69 209.92
*N rd_pad:3 *C 296.23 287.475
*N rd_pad:4 *C 296.23 286.245
*N rd_pad:5 *C 296.23 286.245
*N rd_pad:6 *C 296.23 286.245
*N rd_pad:7 *C 296.23 210.395
*N rd_pad:8 *C 296.23 210.395
*N rd_pad:9 *C 296.23 210.395
*N rd_pad:10 *C 296.23 210.395
*N rd_pad:11 *C 296.23 210.395
*N rd_pad:12 *C 296.23 210.395
*N rd_pad:13 *C 296.23 260.25
*N rd_pad:14 *C 346.085 210.395
*N rd_pad:15 *C 346.085 210.395
*N rd_pad:16 *C 346.085 210.395
*N rd_pad:17 *C 346.085 210.395
*N rd_pad:18 *C 396.085 210.395

*CAP
1 U31:Y 0.0
2 i_rd:I 0.6236388
3 rd_pad:3 0.1128423
4 rd_pad:4 0.05167504
5 rd_pad:5 0.1128423
6 rd_pad:6 1.307516
7 rd_pad:7 2.412227
8 rd_pad:8 0.0
9 rd_pad:9 0.0
10 rd_pad:10 0.0
11 rd_pad:11 0.0
12 rd_pad:12 2.361159
13 rd_pad:13 3.668069
14 rd_pad:14 2.352277
15 rd_pad:15 0.0
16 rd_pad:16 0.0
17 rd_pad:17 2.361159
18 rd_pad:18 2.975916

*RES
1 rd_pad:3 U31:Y 0.1
2 rd_pad:4 rd_pad:5 0.1
3 rd_pad:6 rd_pad:4 0.1
4 rd_pad:7 rd_pad:8 0.1
5 rd_pad:5 rd_pad:3 0.13832
6 rd_pad:8 rd_pad:10 1e-07
7 rd_pad:10 rd_pad:9 1e-07
8 rd_pad:9 rd_pad:11 1e-07
9 rd_pad:11 rd_pad:12 1e-07
10 rd_pad:18 i_rd:I 1.04195
11 rd_pad:13 rd_pad:6 2.378741
12 rd_pad:13 rd_pad:7 4.55
13 rd_pad:14 rd_pad:16 1e-07
14 rd_pad:16 rd_pad:15 1e-07
15 rd_pad:15 rd_pad:17 1e-07
16 rd_pad:17 rd_pad:12 4.550001
17 rd_pad:18 rd_pad:14 4.55

*END

*D_NET n8 5.26135

*CONN
*I U30:B0 I *L 3.179 *C 290.25 290.345
*I U23:Y O *L 0.0 *D AOI2BB2X1 *C 282.43 294.445
*I U8:B I *L 2.454 *C 291.17 295.675
*I U20:A I *L 5.822 *C 279.21 284.195
*N n8:5 *C 279.21 284.195
*N n8:6 *C 279.21 285.425
*N n8:7 *C 279.21 285.425
*N n8:8 *C 279.21 285.425
*N n8:9 *C 279.21 293.625
*N n8:10 *C 279.21 293.625
*N n8:11 *C 291.17 295.675
*N n8:12 *C 291.17 293.625
*N n8:13 *C 291.17 293.625
*N n8:14 *C 290.25 290.345
*N n8:15 *C 290.25 291.985
*N n8:16 *C 290.25 291.985
*N n8:17 *C 290.25 291.985
*N n8:18 *C 290.25 293.625
*N n8:19 *C 290.25 293.625
*N n8:20 *C 282.43 294.445
*N n8:21 *C 282.43 293.625
*N n8:22 *C 282.43 293.625

*CAP
1 U30:B0 0.0
2 U23:Y 0.0
3 U8:B 0.0
4 U20:A 0.0
5 n8:5 0.1463279
6 n8:6 0.06224544
7 n8:7 0.1463279
8 n8:8 0.6575364
9 n8:9 0.5952909
10 n8:10 0.1705877
11 n8:11 0.2242509
12 n8:12 0.08207579
13 n8:13 0.2242509
14 n8:14 0.1925601
15 n8:15 0.1193768
16 n8:16 0.1925601
17 n8:17 0.2746068
18 n8:18 0.15523
19 n8:19 0.410278
20 n8:20 0.1265007
21 n8:21 0.4987899
22 n8:22 0.1265007
23 n8:19 n11:5 0.1642064
24 n8:21 n11:7 0.1642064
25 n8:21 n15:9 0.3448317
26 n8:10 n15:10 0.1828085

*RES
1 n8:5 U20:A 0.1
2 n8:6 n8:7 0.1
3 n8:8 n8:6 0.1
4 n8:9 n8:10 0.1
5 n8:11 U8:B 0.1
6 n8:12 n8:13 0.1
7 n8:14 U30:B0 0.1
8 n8:15 n8:16 0.1
9 n8:17 n8:15 0.1
10 n8:18 n8:19 0.1
11 n8:20 U23:Y 0.1
12 n8:21 n8:22 0.1
13 n8:5 n8:7 0.13832
14 n8:22 n8:20 0.10101
15 n8:14 n8:16 0.17563
16 n8:13 n8:11 0.21294
17 n8:10 n8:21 0.306215
18 n8:21 n8:19 0.7116202
19 n8:19 n8:12 0.09691501
20 n8:8 n8:9 0.77259
21 n8:17 n8:18 0.17563

*END

*D_NET ld_pc_pad 25.54979

*CONN
*I U29:Y O *L 0.0 *D NOR2X2 *C 285.65 299.365
*I i_ld_pc:I I *L 77.0 *C 394.5 407.27
*N ld_pc_pad:3 *C 285.65 299.365
*N ld_pc_pad:4 *C 285.65 299.365
*N ld_pc_pad:5 *C 285.65 299.365
*N ld_pc_pad:6 *C 285.65 383.415
*N ld_pc_pad:7 *C 285.65 383.415
*N ld_pc_pad:8 *C 394.67 383.415
*N ld_pc_pad:9 *C 394.67 383.415
*N ld_pc_pad:10 *C 394.585 399.83
*N ld_pc_pad:11 *C 394.585 399.83
*N ld_pc_pad:12 *C 394.585 399.83
*N ld_pc_pad:13 *C 394.585 399.83
*N ld_pc_pad:14 *C 285.65 349.22
*N ld_pc_pad:15 *C 335.505 383.415
*N ld_pc_pad:16 *C 385.505 383.415

*CAP
1 U29:Y 0.0
2 i_ld_pc:I 0.4835325
3 ld_pc_pad:3 0.06528503
4 ld_pc_pad:4 0.1272219
5 ld_pc_pad:5 1.880779
6 ld_pc_pad:6 1.629732
7 ld_pc_pad:7 1.628524
8 ld_pc_pad:8 0.7815892
9 ld_pc_pad:9 0.2557305
10 ld_pc_pad:10 0.7815892
11 ld_pc_pad:11 0.0
12 ld_pc_pad:12 0.0
13 ld_pc_pad:13 0.4835325
14 ld_pc_pad:14 3.448574
15 ld_pc_pad:15 3.196142
16 ld_pc_pad:16 1.823349
17 ld_pc_pad:14 i_control_N21:6 1.659145
18 ld_pc_pad:5 i_control_N21:5 1.659145
19 ld_pc_pad:15 ld_ac_pad:13 1.134699
20 ld_pc_pad:15 ld_ac_pad:16 1.589462
21 ld_pc_pad:7 ld_ac_pad:11 1.194536
22 ld_pc_pad:9 ld_ac_pad:17 0.296257
23 ld_pc_pad:16 ld_ac_pad:17 1.430956

*RES
1 ld_pc_pad:3 U29:Y 0.1
2 ld_pc_pad:4 ld_pc_pad:3 0.1
3 ld_pc_pad:5 ld_pc_pad:4 0.1
4 ld_pc_pad:6 ld_pc_pad:7 0.1
5 ld_pc_pad:8 ld_pc_pad:9 0.1
6 ld_pc_pad:16 ld_pc_pad:9 0.8472101
7 ld_pc_pad:14 ld_pc_pad:6 3.12494
8 ld_pc_pad:10 ld_pc_pad:12 1e-07
9 ld_pc_pad:12 ld_pc_pad:11 1e-07
10 ld_pc_pad:11 ld_pc_pad:13 1e-07
11 ld_pc_pad:13 i_ld_pc:I 0.674947
12 ld_pc_pad:8 ld_pc_pad:10 1.49786
13 ld_pc_pad:14 ld_pc_pad:5 4.55
14 ld_pc_pad:15 ld_pc_pad:7 4.550001
15 ld_pc_pad:16 ld_pc_pad:15 4.55

*END

*D_NET n16 1.123573

*CONN
*I U29:B I *L 5.96 *C 283.81 298.955
*I U28:Y O *L 0.0 *D NAND3XL *C 278.72 299.85
*N n16:3 *C 283.81 298.955
*N n16:4 *C 283.81 298.545
*N n16:5 *C 283.81 298.545
*N n16:6 *C 279.21 298.545
*N n16:7 *C 279.21 298.545
*N n16:8 *C 279.21 298.545

*CAP
1 U29:B 0.0
2 U28:Y 0.0685179
3 n16:3 0.06624079
4 n16:4 0.35265
5 n16:5 0.06624079
6 n16:6 0.35265
7 n16:7 0.07437785
8 n16:8 0.1428958

*RES
1 n16:3 U29:B 0.1
2 n16:4 n16:5 0.1
3 n16:6 n16:7 0.1
4 n16:7 n16:8 0.1
5 U28:Y n16:8 0.0664125
6 n16:5 n16:3 0.06370001
7 n16:6 n16:4 0.4449901

*END

*D_NET opcode_pad\[0\] 29.77629

*CONN
*I U28:A I *L 2.021 *C 278.29 298.955
*I U26:C I *L 3.26 *C 277.83 295.265
*I U1:A I *L 2.576 *C 282.43 284.195
*I U17:B I *L 7.067 *C 280.13 287.475
*I U3:A I *L 5.822 *C 285.65 280.505
*I i_opcode_0:C O *L 0.0 *D PI *C 196.73 347.62
*N opcode_pad\[0\]:7 *C 280.13 287.475
*N opcode_pad\[0\]:8 *C 280.13 287.475
*N opcode_pad\[0\]:9 *C 278.29 298.955
*N opcode_pad\[0\]:10 *C 278.29 299.365
*N opcode_pad\[0\]:11 *C 278.29 299.365
*N opcode_pad\[0\]:12 *C 277.83 299.365
*N opcode_pad\[0\]:13 *C 277.83 299.365
*N opcode_pad\[0\]:14 *C 277.83 295.265
*N opcode_pad\[0\]:15 *C 277.83 295.675
*N opcode_pad\[0\]:16 *C 277.83 295.675
*N opcode_pad\[0\]:17 *C 277.83 295.675
*N opcode_pad\[0\]:18 *C 282.43 284.195
*N opcode_pad\[0\]:19 *C 282.43 285.015
*N opcode_pad\[0\]:20 *C 282.43 285.015
*N opcode_pad\[0\]:21 *C 285.65 280.505
*N opcode_pad\[0\]:22 *C 285.65 281.735
*N opcode_pad\[0\]:23 *C 285.65 281.735
*N opcode_pad\[0\]:24 *C 285.65 281.735
*N opcode_pad\[0\]:25 *C 285.65 285.015
*N opcode_pad\[0\]:26 *C 285.65 285.015
*N opcode_pad\[0\]:27 *C 277.83 287.475
*N opcode_pad\[0\]:28 *C 277.83 287.475
*N opcode_pad\[0\]:29 *C 280.13 285.015
*N opcode_pad\[0\]:30 *C 280.13 285.015
*N opcode_pad\[0\]:31 *C 280.13 287.475
*N opcode_pad\[0\]:32 *C 199.17 347.745
*N opcode_pad\[0\]:33 *C 199.17 347.745
*N opcode_pad\[0\]:34 *C 199.17 300.595
*N opcode_pad\[0\]:35 *C 199.17 300.595
*N opcode_pad\[0\]:36 *C 277.37 300.595
*N opcode_pad\[0\]:37 *C 277.37 300.595